# Packages
 &PACKAGES
 useOBCS=.TRUE.,
 usecal=.FALSE.,
 usediagnostics=.TRUE.,
 useMNC=.FALSE.,
 usePP81=.TRUE.,
 &
