# ====================
# | Model parameters |
# ====================
#
# Continuous equation parameters
 &PARM01
Tref =    29.65,    29.68,    29.72,    29.75,    29.78,    29.82,    29.82,    29.82,    29.82,    29.82,    29.82,    29.82,    29.82,    29.82,    29.82,    29.83,    29.83,    29.83,    29.82,    29.82,    29.82,    29.82,    29.82,    29.82,    29.82,    29.82,    29.82,    29.82,    29.82,    29.82,    29.82,    29.82,    29.82,    29.82,    29.82,    29.82,    29.82,    29.82,    29.82,    29.82,    29.81,    29.81,    29.81,    29.81,     29.8,     29.8,     29.8,     29.8,    29.79,    29.79,    29.79,    29.78,    29.77,    29.77,    29.76,    29.75,    29.75,    29.74,    29.73,    29.73,    29.73,    29.72,    29.71,     29.7,     29.7,    29.69,    29.68,    29.67,    29.66,    29.66,    29.65,    29.65,    29.63,    29.61,     29.6,    29.58,    29.56,    29.55,    29.53,    29.51,     29.5,    29.48,    29.48,    29.42,    29.36,     29.3,    29.24,    29.18,    29.12,    29.06,       29,    28.94,    28.88,    28.88,    28.77,    28.66,    28.55,    28.44,    28.33,    28.22,    28.11,       28,    27.89,    27.78,    27.78,    27.68,    27.58,    27.48,    27.38,    27.28,    27.18,    27.08,    26.99,    26.89,    26.79,    26.79,    26.68,    26.57,    26.47,    26.36,    26.25,    26.14,    26.04,    25.93,    25.82,    25.71,    25.71,    25.59,    25.47,    25.47,    25.47,    25.47,    25.47,    25.47,    25.47,    25.47,    25.47,    25.47,    25.47,    25.47,    25.47,    25.47,    25.47,    25.47,    25.47,    25.47,    25.47,    25.47,    25.47,    25.47,    25.47,    25.47,    25.47,    25.47,    25.47,    25.47,    25.47,    25.47,    25.47,    25.47,    25.47,    25.47,    25.47,    25.47,    25.47,    25.47,    25.47,    25.47,    25.47,    25.47,    25.47,    25.47,    25.47,    25.47,    25.47,    25.47,    25.47,    25.34,    25.22,     25.1,    24.97,    24.85,    24.73,    24.61,    24.48,    24.48,    24.33,    24.18,    24.02,    23.87,    23.72,    23.56,    23.41,    23.26,     23.1,    22.95,    22.95,    22.77,    22.58,     22.4,    22.21,    22.03,    21.84,    21.66,    21.48,    21.29,    21.11,    21.11,    20.91,    20.71,    20.51,    20.31,     20.1,     19.9,     19.7,     19.5,     19.3,     19.1,     19.1,     18.9,     18.7,    18.49,    18.29,    18.09,    17.89,    17.69,    17.49,    17.28,    17.08,    17.08,    16.89,     16.7,    16.51,    16.33,    16.14,    15.95,    15.76,    15.57,    15.38,    15.19,    15.19,    15.05,     14.9,    14.76,    14.61,    14.47,    14.32,    14.18,    14.03,    13.89,    13.74,    13.74,    13.63,    13.52,     13.4,    13.29,    13.18,    13.07,    12.95,    12.84,    12.73,    12.62,    12.62,    12.54,    12.46,    12.39,    12.31,    12.24,    12.16,    12.08,    12.01,    11.93,    11.86,    11.86,    11.38,    11.01,    10.63,    10.16,     9.76,      9.3,     8.66,     7.67,     6.48,     5.15,     3.91,     2.84,     2.01,     1.45,     1.14,        1,
 sRef = 290*35.,
 viscAz=1.E-3,
 viscAh=1.E-2,
 no_slip_sides=.FALSE.,
 no_slip_bottom=.FALSE.,
 f0=0.0,
 beta=0.E-11,
 tAlpha=2.E-4,
 sBeta =0.E-4,
 gravity=9.81,
 rigidLid=.FALSE.,
 tempAdvScheme=77,
 saltAdvScheme=77,
 implicitFreeSurface=.TRUE.,
 eosType='LINEAR',
# exactConserv=.TRUE.
 nonHydrostatic=.FALSE.,
 hFacMin=0.2,
# implicSurfPress=0.5,
# implicDiv2DFlow=0.5,
# nonlinFreeSurf=3,
 hFacInf=0.2,
 hFacSup=1.8,
 useSingleCpuIO=.TRUE.,
 saltStepping=.FALSE.,
#- not safe to use globalFiles in multi-processors runs
#globalFiles=.TRUE.,
 readBinaryPrec=64,
 writeBinaryPrec=64,
 writeStatePrec=64,
 exactConserv=.TRUE.,
 implicitDiffusion=.TRUE.,
 implicitViscosity=.TRUE.,
 staggerTimeStep=.TRUE.,
 &

# Elliptic solver parameters
 &PARM02
 cg2dMaxIters=1000,
 cg2dTargetResidual=1.E-13,
 cg3dMaxIters=400,
 cg3dTargetResidual=1.E-13,
 &

# Time stepping parameters
 &PARM03
# nIter0=1382400,
 nTimeSteps=12096000,
 deltaT=0.1,
# endtime=1382400,
# abEps=0.1,
# pChkptFreq=9300,
# chkptFreq=18600,
# dumpFreq=50000.,
# monitorFreq=3600,
# monitorSelect=2,
# rwSuffixType=1,
 &

# Gridding parameters
 &PARM04
 usingCartesianGrid=.TRUE.,
 delXfile='delXvar',
 delY=5.E3,
 delZ=226*1, 13, 24, 48*30, 30,30,30,30,50,100,150,201,367,405,437,467,489,504.,
 &

# Input datasets
 &PARM05
 hydrogThetaFile='T.init',
 bathyFile='sliceElev',
 &
