# Packages
 &PACKAGES
 useOBCS=.TRUE.,
 usecal=.FALSE.,
 usediagnostics=.TRUE.,
 useMNC=.FALSE.,
 useRBCS=.FALSE.,
 &
